# Packages
 &PACKAGES
 useFLT=.TRUE.,
 useMNC=.TRUE.,
 &
  
